78
C:1 K:2;3;17;39,40 L:2;3-16;17-34;35-78
C      2.63530    0.90350    0.21629
C      3.51352    5.01537   -0.81545
H      4.48777    5.06523   -1.34623
H      3.56936    5.63932    0.10159
H      2.71953    5.41865   -1.47903
C      2.19310    1.44616   -0.98436
C      3.19788    3.57546   -0.44472
C      3.65019    3.02754    0.74680
C      2.46884    2.76576   -1.30444
C      3.37211    1.70985    1.07719
H      4.22949    3.63375    1.43015
H      2.11337    3.16750   -2.24409
H      3.75199    1.32052    2.01572
H      1.63964    0.85001   -1.69853
C      3.71278   -1.44189    0.11579
H      3.40183   -2.50305    0.13788
C      3.80341   -2.00018   -2.31754
C      4.81067    0.04972   -1.61631
C      5.16953    0.31577   -2.92295
C      4.15937   -1.73151   -3.62569
C      4.83516   -0.56457   -3.93913
H      5.08343    0.75629   -0.84745
H      3.31496   -2.93520   -2.08575
H      5.71593    1.21978   -3.15096
H      3.91790   -2.44214   -4.40414
H      5.11127   -0.35053   -4.96112
C      4.91027   -1.29340    1.06963
O      6.00554   -2.07085    0.62229
H      4.67855   -1.68480    2.06233
H      5.22279   -0.24514    1.16866
H      6.22671   -1.79429   -0.27498
C      4.09390   -1.10621   -1.28238
Br     1.89003   -2.19301    2.68328
Ni     2.00794   -0.72495    0.91633
C     -0.51648   -0.63171   -0.29813
C     -0.65305    0.14978    0.95019
C     -0.05268    0.95845    2.90714
C      0.53216   -1.83455   -1.81721
N      0.54748   -1.29193   -0.45976
N      0.37746    0.31071    1.66650
O     -1.82066    0.62387    1.36559
O     -1.43156   -0.62951   -1.26142
C     -1.51340    1.34778    2.59071
C     -0.92767   -1.57880   -2.24498
H      0.00512    0.20182    3.69388
H      1.24203   -1.23286   -2.39291
H     -1.62105    2.41263    2.37951
H     -1.03458   -1.12614   -3.22609
H     -2.23235    1.04718    3.34661
H     -1.54268   -2.47772   -2.17564
C      0.99384   -3.29255   -1.82998
C      0.73866   -4.38460   -5.97394
C     -0.41713   -4.18906   -5.23360
C      1.97856   -4.29494   -5.35452
C     -0.33698   -3.88397   -3.88224
H      0.20361   -3.91794   -1.40906
C      2.05306   -4.01113   -3.99664
C      0.89682   -3.78455   -3.25140
H      1.87668   -3.38945   -1.19312
H      0.67589   -4.59688   -7.03293
H     -1.38521   -4.25232   -5.71303
H      2.89454   -4.41613   -5.91730
H     -1.24407   -3.70162   -3.31660
H      3.02786   -3.93727   -3.52641
C      0.84536    2.13235    3.28090
C     -1.10461    4.53531    6.26741
C     -1.01274    4.99370    4.96204
C     -0.54691    3.30872    6.60647
C     -0.36942    4.22641    3.99895
H      1.06282    2.71384    2.38237
C      0.09398    2.54565    5.64294
C      0.18907    2.99511    4.32665
H      1.78915    1.72574    3.64919
H     -1.60215    5.13281    7.01997
H     -1.43663    5.95221    4.69174
H     -0.60661    2.94905    7.62553
H     -0.28788    4.59560    2.98273
H      0.53744    1.59339    5.91286
