78
C:1 K:2;3;17;39,40 L:2;3-16;17-34;35-78
C     -2.63474    1.40576    0.63850
C     -3.33075    5.57157    1.48073
H     -3.94917    6.02407    0.67687
H     -3.86424    5.67613    2.44915
H     -2.36336    6.11372    1.54082
C     -2.05878    2.00407    1.75131
C     -3.08407    4.10209    1.18041
C     -3.65999    3.51200    0.07002
C     -2.28507    3.34628    2.01944
C     -3.43871    2.16955   -0.20023
H     -4.28956    4.09160   -0.59054
H     -1.83215    3.79870    2.89113
H     -3.92255    1.72603   -1.06470
H     -1.43404    1.43654    2.42882
C     -3.70515   -0.89880    0.89870
H     -3.43737   -1.96892    0.79252
C     -5.35044   -1.54209   -0.86916
C     -5.78936    0.44211    0.39769
C     -6.95852    0.63015   -0.31287
C     -6.51798   -1.34941   -1.57909
C     -7.32822   -0.25853   -1.30893
H     -5.52856    1.14933    1.16935
H     -4.73415   -2.39960   -1.09789
H     -7.58804    1.47908   -0.08602
H     -6.79818   -2.05640   -2.34642
H     -8.24087   -0.10480   -1.86621
C     -3.85570   -0.62651    2.39595
O     -4.85675   -1.45380    2.96293
H     -4.17368    0.39366    2.61098
H     -2.90269   -0.80235    2.91429
H     -4.72860   -2.35568    2.64594
C     -4.95053   -0.64578    0.12993
Br    -1.95639   -1.86532   -1.73548
Ni    -2.08584   -0.23167   -0.09296
C      0.61632   -0.38403    0.66333
C      0.58420    0.38201   -0.60152
C     -0.31940    1.33373   -2.36837
C     -0.23033   -1.39073    2.43077
N     -0.48031   -0.82691    1.10526
N     -0.54158    0.75636   -1.04132
O      1.67918    0.62752   -1.30959
O      1.72639   -0.58112    1.36633
C      1.22085    1.42334   -2.43918
C      1.31108   -1.43430    2.47179
H     -0.71889    0.61985   -3.09333
H     -0.64188   -0.67429    3.14820
H      1.58298    2.44190   -2.29260
H      1.74687   -1.03216    3.38134
H      1.65429    1.00415   -3.34199
H      1.70208   -2.43439    2.27673
C     -0.94833   -2.73035    2.60094
C     -0.86375   -3.50886    6.82196
C      0.14670   -3.99232    6.00500
C     -1.93966   -2.83208    6.26206
C      0.09566   -3.78353    4.63405
H     -0.42631   -3.48903    2.01386
C     -1.99742   -2.64480    4.88674
C     -0.97121   -3.10238    4.06142
H     -1.96425   -2.63935    2.20851
H     -0.81010   -3.64960    7.89329
H      0.98976   -4.51526    6.43723
H     -2.72566   -2.42178    6.88197
H      0.90504   -4.13728    4.00494
H     -2.83984   -2.10871    4.46280
C     -1.03661    2.66814   -2.53920
C      0.52943    4.70657   -5.98712
C      0.85929    5.14628   -4.71417
C     -0.32301    3.62007   -6.14007
C      0.34201    4.49922   -3.59888
H     -0.90409    3.26172   -1.63207
C     -0.83704    2.97667   -5.02508
C     -0.50923    3.40802   -3.74050
H     -2.10307    2.46168   -2.64751
H      0.92835    5.21116   -6.85727
H      1.51545    5.99753   -4.58650
H     -0.59226    3.27737   -7.13076
H      0.59170    4.85559   -2.60575
H     -1.51046    2.13536   -5.14767
