131
IntC_S
 C                 -2.63474000    1.40576000    0.63850000
 C                 -3.43871000    2.16955000   -0.20023000
 C                 -3.65999000    3.51200000    0.07002000
 C                 -3.08407000    4.10209000    1.18041000
 C                 -2.28507000    3.34628000    2.01944000
 C                 -2.05878000    2.00407000    1.75131000
 H                 -3.92255000    1.72603000   -1.06470000
 H                 -4.28956000    4.09160000   -0.59054000
 O                 -3.31326525    5.48572041    1.45958098
 C                 -4.16481709    6.04092806    0.45384547
 H                 -3.71539002    5.90675117   -0.50787792
 H                 -5.11321359    5.54602394    0.47651679
 H                 -4.30302254    7.08544404    0.64035451
 H                 -1.83215000    3.79870000    2.89113000
 H                 -1.43404000    1.43654000    2.42882000
 C                 -3.70515000   -0.89880000    0.89870000
 H                 -3.43737000   -1.96892000    0.79252000
 C                 -3.85570000   -0.62651000    2.39595000
 H                 -4.17368000    0.39366000    2.61098000
 H                 -2.90269000   -0.80235000    2.91429000
 N                 -4.85675000   -1.45380000    2.96293000
 H                 -4.48730702   -2.31949718    3.15182224
 S                 -5.42557969   -0.74807657    4.41292559
 O                 -6.40090299    0.55830453    4.05096856
 O                 -4.12697500   -0.23616040    5.32969584
 C                 -6.36226998   -1.95152949    5.33091926
 C                 -5.70724690   -3.00084246    5.97617771
 C                 -7.75107369   -1.84550634    5.40529332
 C                 -6.44100141   -3.94425597    6.69506365
 H                 -4.61239864   -3.08458495    5.91671103
 C                 -8.48511237   -2.78856680    6.12517807
 H                 -8.26747944   -1.01844639    4.89693717
 C                 -7.83035649   -3.83792331    6.76991264
 H                 -5.92483030   -4.77171871    7.20316729
 H                 -9.58007632   -2.70448495    6.18398648
 H                 -8.40867881   -4.58185718    7.33683593
 C                 -4.95053000   -0.64578000    0.12993000
 C                 -5.78936000    0.44211000    0.39769000
 C                 -6.95852000    0.63015000   -0.31287000
 C                 -7.32822000   -0.25853000   -1.30893000
 C                 -6.51798000   -1.34941000   -1.57909000
 C                 -5.35044000   -1.54209000   -0.86916000
 H                 -5.52856000    1.14933000    1.16935000
 H                 -7.58804000    1.47908000   -0.08602000
 H                 -8.24087000   -0.10480000   -1.86621000
 H                 -6.79818000   -2.05640000   -2.34642000
 H                 -4.73415000   -2.39960000   -1.09789000
 Br                -1.95639000   -1.86532000   -1.73548000
 Ni                -2.08584000   -0.23167000   -0.09296000
 N                 -0.48911000   -0.84469000    1.12898000
 N                 -0.53278000    0.77414000   -1.06504000
 C                 -0.21045000   -1.50825000    2.39169000
 C                  1.31807000   -1.36885000    2.57673000
 N                  1.70698000   -0.52834000    1.45278000
 C                  0.60904000   -0.33478000    0.67799000
 C                  0.59308000    0.33281000   -0.61618000
 N                  1.66905000    0.54268000   -1.41759000
 C                  1.20705000    1.26565000   -2.59748000
 C                 -0.32017000    1.36512000   -2.37449000
 H                 -0.74145000   -0.96534000    3.18684000
 C                 -0.74355000   -2.95356000    2.39252000
 H                 -1.82277000   -2.87408000    2.23225000
 C                 -0.17367000   -3.79721000    1.25702000
 H                 -0.66861000   -4.76476000    1.23518000
 H                 -0.34858000   -3.31268000    0.29961000
 H                  0.89235000   -3.97206000    1.38106000
 C                 -0.50684000   -3.60840000    3.75051000
 H                 -0.95514000   -3.01847000    4.54725000
 H                 -0.95345000   -4.59935000    3.76618000
 H                  0.55627000   -3.71284000    3.95691000
 H                  1.58628000   -0.88950000    3.52151000
 H                  1.82544000   -2.33629000    2.52301000
 C                  2.87844000    0.23763000    1.47084000
 C                  4.08075000   -0.35735000    1.83590000
 C                  5.22429000    0.41263000    1.87301000
 C                  5.17825000    1.76568000    1.58414000
 C                  3.97912000    2.38677000    1.25328000
 C                  2.83617000    1.59814000    1.18808000
 H                  4.11596000   -1.40780000    2.07413000
 H                  6.16614000   -0.04418000    2.13784000
 H                  6.09339000    2.33083000    1.63551000
 C                  3.88263000    3.87821000    0.96584000
 C                  3.67880000    4.06730000   -0.54254000
 H                  4.54952000    3.70972000   -1.08889000
 H                  2.80614000    3.51332000   -0.87807000
 H                  3.53350000    5.12020000   -0.77532000
 C                  2.69374000    4.48500000    1.72525000
 H                  2.76567000    4.25363000    2.78585000
 H                  2.69352000    5.56654000    1.60910000
 H                  1.74238000    4.11439000    1.35415000
 C                  5.14533000    4.63640000    1.38629000
 H                  4.99870000    5.70216000    1.22405000
 H                  5.35814000    4.47975000    2.44126000
 H                  6.00752000    4.32938000    0.79950000
 H                  1.88257000    2.03714000    0.93598000
 C                  2.86676000   -0.18868000   -1.44223000
 C                  4.04547000    0.45644000   -1.79760000
 C                  5.21801000   -0.26796000   -1.84111000
 C                  5.22096000   -1.62518000   -1.56946000
 C                  4.04494000   -2.29654000   -1.25395000
 C                  2.87246000   -1.55257000   -1.17785000
 H                  4.03869000    1.50938000   -2.02740000
 H                  6.14261000    0.22702000   -2.09876000
 H                  6.15682000   -2.15507000   -1.62567000
 C                  4.01051000   -3.79484000   -0.99039000
 C                  2.82151000   -4.43539000   -1.72004000
 H                  2.85724000   -4.19700000   -2.78042000
 H                  2.85946000   -5.51681000   -1.61016000
 H                  1.86705000   -4.09893000   -1.32746000
 C                  3.86777000   -4.01125000    0.52153000
 H                  3.77960000   -5.07227000    0.74528000
 H                  4.73743000   -3.61758000    1.04499000
 H                  2.98116000   -3.50335000    0.89119000
 C                  5.28612000   -4.49862000   -1.46466000
 H                  5.17673000   -5.57290000   -1.33255000
 H                  5.46554000   -4.30303000   -2.51923000
 H                  6.15433000   -4.18318000   -0.89092000
 H                  1.93412000   -2.03097000   -0.94359000
 H                  1.46070000    0.70998000   -3.50328000
 H                  1.68137000    2.24997000   -2.64829000
 H                 -0.86016000    0.75401000   -3.11047000
 C                 -0.90279000    2.78767000   -2.44195000
 H                 -1.97292000    2.68454000   -2.23917000
 C                 -0.72913000    3.37433000   -3.83961000
 H                 -1.21322000    4.34624000   -3.89602000
 H                  0.32288000    3.50408000   -4.08525000
 H                 -1.17763000    2.72366000   -4.58669000
 C                 -0.32115000    3.71001000   -1.37432000
 H                 -0.87347000    4.64621000   -1.35578000
 H                 -0.40882000    3.25012000   -0.39193000
 H                  0.72334000    3.94153000   -1.57133000
