131
TSRE_R
 C                 -3.01704000   -1.11301000    0.82482000
 C                 -3.41519000   -1.35715000    2.15586000
 C                 -3.66959000   -2.65351000    2.61301000
 C                 -3.55438000   -3.74324000    1.74918000
 C                 -3.18811000   -3.51735000    0.41761000
 C                 -2.94596000   -2.22451000   -0.04027000
 H                 -3.51150000   -0.52725000    2.85135000
 H                 -3.96633000   -2.80586000    3.64848000
 O                 -3.80674323   -5.07061609    2.21745932
 C                 -4.16032481   -5.02904248    3.60243286
 H                 -3.34957881   -4.61575798    4.16527105
 H                 -5.03045622   -4.41959004    3.73025718
 H                 -4.36550734   -6.02067196    3.94807878
 H                 -3.10176000   -4.35435000   -0.27211000
 H                 -2.69683000   -2.07299000   -1.08686000
 C                 -3.87075000    0.58575000    0.05230000
 H                 -3.32228000    1.45004000   -0.34773000
 C                 -4.76564000    1.14632000    1.16496000
 H                 -4.14649000    1.60849000    1.93644000
 H                 -5.36137000    0.34736000    1.62754000
 N                 -5.60944000    2.18642000    0.67873000
 H                 -6.47346615    1.79442345    0.36282254
 S                 -5.91662373    3.30529071    1.93486156
 O                 -4.50009835    4.09277015    2.33764185
 O                 -6.50215372    2.49409521    3.27202890
 C                 -7.12211375    4.49524079    1.38785825
 C                 -8.47505778    4.29452095    1.66304080
 C                 -6.71420063    5.62840145    0.68422345
 C                 -9.41987489    5.22646385    1.23405968
 H                 -8.79640426    3.40067002    2.21712449
 C                 -7.65907925    6.56122093    0.25589870
 H                 -5.64789188    5.78684622    0.46740572
 C                 -9.01176417    6.36037706    0.53056625
 H                -10.48636168    5.06800651    1.45037821
 H                 -7.33712238    7.45478136   -0.29850888
 H                 -9.75689451    7.09507178    0.19248227
 C                 -4.66706000    0.00579000   -1.08468000
 C                 -5.65209000   -0.98082000   -0.88212000
 C                 -6.43839000   -1.44653000   -1.93439000
 C                 -6.26271000   -0.94467000   -3.22642000
 C                 -5.29957000    0.03918000   -3.44809000
 C                 -4.52239000    0.51015000   -2.38762000
 H                 -5.79044000   -1.40014000    0.10960000
 H                 -7.18956000   -2.20910000   -1.74447000
 H                 -6.87523000   -1.31026000   -4.04630000
 H                 -5.16209000    0.45578000   -4.44304000
 H                 -3.80522000    1.30574000   -2.56616000
 Br                -1.31173000    2.49699000    1.62631000
 Ni                -1.81127000    0.34378000    0.62996000
 N                 -0.64911000    0.13783000   -1.05320000
 N                 -0.02410000   -0.43049000    1.46089000
 C                 -0.78411000    0.33668000   -2.50836000
 C                  0.51533000   -0.28011000   -3.09079000
 N                  1.38243000   -0.41771000   -1.89573000
 C                  0.57702000   -0.21539000   -0.80281000
 C                  0.95212000   -0.28496000    0.62840000
 N                  2.22682000   -0.16224000    1.14875000
 C                  2.06261000   -0.30298000    2.62426000
 C                  0.52089000   -0.36077000    2.83170000
 H                 -1.66746000   -0.20848000   -2.85752000
 C                 -0.99289000    1.83870000   -2.84023000
 H                 -1.84106000    2.16173000   -2.22301000
 C                  0.19757000    2.72572000   -2.45475000
 H                 -0.05459000    3.77830000   -2.62471000
 H                  0.44884000    2.61384000   -1.39684000
 H                  1.09072000    2.50227000   -3.05183000
 C                 -1.37362000    2.01450000   -4.31783000
 H                 -2.25291000    1.41594000   -4.58468000
 H                 -1.60301000    3.06381000   -4.53279000
 H                 -0.55397000    1.71851000   -4.98548000
 H                  0.34932000   -1.27134000   -3.53061000
 H                  0.98989000    0.35378000   -3.84414000
 C                  2.53097000   -1.25844000   -1.97188000
 C                  3.54822000   -0.91454000   -2.87059000
 C                  4.64684000   -1.75504000   -3.00341000
 C                  4.74692000   -2.92387000   -2.24342000
 C                  3.73999000   -3.28730000   -1.33898000
 C                  2.62579000   -2.43801000   -1.22873000
 H                  3.48061000    0.00934000   -3.43624000
 H                  5.44198000   -1.49553000   -3.69708000
 H                  5.62026000   -3.55287000   -2.37066000
 C                  3.80487000   -4.57151000   -0.49059000
 C                  3.82563000   -4.19046000    1.00859000
 H                  4.71080000   -3.58955000    1.24778000
 H                  2.94091000   -3.61158000    1.29209000
 H                  3.84995000   -5.09306000    1.63109000
 C                  2.56449000   -5.45021000   -0.77985000
 H                  2.52226000   -5.73356000   -1.83773000
 H                  2.60507000   -6.36943000   -0.18345000
 H                  1.62929000   -4.93789000   -0.53179000
 C                  5.06294000   -5.40811000   -0.79174000
 H                  5.06103000   -6.31018000   -0.17004000
 H                  5.09939000   -5.72908000   -1.83903000
 H                  5.98407000   -4.85784000   -0.56875000
 H                  1.81034000   -2.69910000   -0.56204000
 C                  3.12079000    0.87110000    0.67414000
 C                  4.40528000    0.53083000    0.25879000
 C                  5.27424000    1.54929000   -0.13564000
 C                  4.86453000    2.88003000   -0.09930000
 C                  3.57793000    3.24506000    0.33726000
 C                  2.70919000    2.21272000    0.71562000
 H                  4.70724000   -0.51094000    0.23656000
 H                  6.27797000    1.30248000   -0.47146000
 H                  5.56563000    3.64905000   -0.41054000
 C                  3.17004000    4.72994000    0.38700000
 C                  1.79783000    4.93959000    1.05527000
 H                  1.79644000    4.58928000    2.09348000
 H                  1.55829000    6.00902000    1.06759000
 H                  0.98208000    4.42569000    0.53805000
 C                  3.11199000    5.28624000   -1.05571000
 H                  2.84417000    6.34978000   -1.04263000
 H                  4.07670000    5.18956000   -1.56679000
 H                  2.36087000    4.75552000   -1.65104000
 C                  4.21765000    5.53129000    1.19689000
 H                  3.92338000    6.58624000    1.24899000
 H                  4.29550000    5.15155000    2.22199000
 H                  5.21501000    5.48986000    0.74643000
 H                  1.70502000    2.43245000    1.06915000
 H                  2.52115000    0.55116000    3.12757000
 H                  2.56909000   -1.21374000    2.96188000
 H                  0.15410000    0.58419000    3.25130000
 C                  0.00759000   -1.50599000    3.72997000
 H                 -1.08230000   -1.38763000    3.75527000
 C                  0.53557000   -1.33673000    5.16261000
 H                  0.09248000   -2.08601000    5.82821000
 H                  1.62524000   -1.46154000    5.21235000
 H                  0.29241000   -0.34567000    5.56409000
 C                  0.29845000   -2.90500000    3.17316000
 H                 -0.14953000   -3.66952000    3.81795000
 H                 -0.12736000   -3.02405000    2.17189000
 H                  1.37492000   -3.11439000    3.12319000
