131
TSRE_S
 C                  2.83724000   -1.82691000    0.03199000
 C                  3.56801000   -2.06982000   -1.14918000
 C                  3.78865000   -3.36899000   -1.61146000
 C                  3.32794000   -4.46678000   -0.88211000
 C                  2.63564000   -4.24636000    0.31217000
 C                  2.39988000   -2.94838000    0.76558000
 H                  3.96908000   -1.23183000   -1.71357000
 H                  4.34112000   -3.52023000   -2.53617000
 O                  3.56096059   -5.79777008   -1.35015575
 C                  4.28404848   -5.75051031   -2.58296166
 H                  5.21743973   -5.25021763   -2.43003025
 H                  4.46577499   -6.74681789   -2.92828277
 H                  3.70998224   -5.21913319   -3.31302077
 H                  2.27277000   -5.09040000    0.89491000
 H                  1.84500000   -2.81181000    1.68993000
 C                  3.62119000   -0.23253000    1.06991000
 H                  3.11811000    0.73292000    1.21978000
 C                  3.70903000   -0.87529000    2.45241000
 H                  4.26334000   -1.82188000    2.42653000
 H                  2.70945000   -1.10003000    2.82876000
 N                  4.27621000    0.01784000    3.41152000
 H                  4.83899007    0.69794673    2.94169723
 S                  5.24621807   -0.86500406    4.50868484
 O                  6.76237387   -0.17021205    4.59491509
 O                  5.38641979   -2.44359670    3.98210269
 C                  4.49047474   -0.84197259    6.12011948
 C                  4.03343327   -2.02904233    6.69322500
 C                  4.35527266    0.36276254    6.80996135
 C                  3.44072551   -2.01119060    7.95560393
 H                  4.13947511   -2.97855727    6.14878189
 C                  3.76329888    0.38065073    8.07315450
 H                  4.71559872    1.29842620    6.35848857
 C                  3.30591472   -0.80602704    8.64598310
 H                  3.07988873   -2.94672186    8.40712866
 H                  3.65720400    1.33062163    8.61700502
 H                  2.83860568   -0.79220739    9.64133611
 C                  4.95862000    0.05783000    0.45386000
 C                  6.02769000   -0.85565000    0.53230000
 C                  7.28226000   -0.54744000    0.00641000
 C                  7.49990000    0.67894000   -0.62348000
 C                  6.44742000    1.59093000   -0.72314000
 C                  5.19570000    1.28646000   -0.18964000
 H                  5.87677000   -1.82492000    0.99789000
 H                  8.08915000   -1.27185000    0.08539000
 H                  8.47702000    0.91907000   -1.03462000
 H                  6.59853000    2.54758000   -1.21670000
 H                  4.37758000    1.99211000   -0.29603000
 Br                 1.76598000    1.91136000   -1.27243000
 Ni                 1.80977000   -0.22439000   -0.05556000
 N                  0.34180000    0.02438000    1.41626000
 N                  0.09982000   -0.83014000   -1.09858000
 C                  0.22288000    0.31067000    2.86607000
 C                 -1.30713000    0.47084000    3.10248000
 N                 -1.89308000    0.05808000    1.80978000
 C                 -0.85731000   -0.10458000    0.92882000
 C                 -0.95827000   -0.35481000   -0.52862000
 N                 -2.05138000   -0.09924000   -1.32824000
 C                 -1.64951000   -0.51948000   -2.70114000
 C                 -0.15022000   -0.91236000   -2.55084000
 H                  0.58966000   -0.57334000    3.40653000
 C                  1.07349000    1.51660000    3.32858000
 H                  2.12099000    1.24599000    3.15702000
 C                  0.78555000    2.80338000    2.54539000
 H                  1.43736000    3.60822000    2.90448000
 H                  0.97148000    2.67670000    1.47398000
 H                 -0.24867000    3.14607000    2.67932000
 C                  0.91471000    1.71971000    4.84421000
 H                  1.15417000    0.80547000    5.40074000
 H                  1.59373000    2.50494000    5.19263000
 H                 -0.10429000    2.02638000    5.11503000
 H                 -1.68694000   -0.16938000    3.90320000
 H                 -1.58366000    1.50633000    3.32947000
 C                 -3.20536000   -0.47814000    1.73879000
 C                 -4.25233000    0.22087000    2.35380000
 C                 -5.52986000   -0.32595000    2.34269000
 C                 -5.77816000   -1.55183000    1.72005000
 C                 -4.74462000   -2.26941000    1.10235000
 C                 -3.45492000   -1.71465000    1.13482000
 H                 -4.06516000    1.18500000    2.81569000
 H                 -6.34714000    0.21146000    2.81604000
 H                 -6.78785000   -1.94527000    1.73044000
 C                 -4.96806000   -3.63411000    0.42270000
 C                 -4.61249000   -3.52228000   -1.07863000
 H                 -5.26154000   -2.79581000   -1.58170000
 H                 -3.57538000   -3.20512000   -1.22741000
 H                 -4.74174000   -4.49183000   -1.57475000
 C                 -4.06324000   -4.70001000    1.08572000
 H                 -4.29105000   -4.79881000    2.15316000
 H                 -4.22018000   -5.67688000    0.61293000
 H                 -3.00043000   -4.45479000    0.99076000
 C                 -6.42844000   -4.11145000    0.53604000
 H                 -6.53633000   -5.08368000    0.04258000
 H                 -6.73805000   -4.23503000    1.58003000
 H                 -7.12476000   -3.41783000    0.05128000
 H                 -2.62227000   -2.25718000    0.69963000
 C                 -2.82021000    1.11565000   -1.20424000
 C                 -4.21410000    1.05140000   -1.25314000
 C                 -4.93789000    2.24019000   -1.24263000
 C                 -4.28174000    3.47298000   -1.18989000
 C                 -2.88230000    3.55550000   -1.14233000
 C                 -2.16288000    2.34842000   -1.14393000
 H                 -4.70941000    0.08668000   -1.29102000
 H                 -6.02375000    2.21136000   -1.27904000
 H                 -4.88047000    4.37691000   -1.19687000
 C                 -2.12607000    4.89658000   -1.09437000
 C                 -1.00683000    4.91706000   -2.16398000
 H                 -1.41888000    4.75693000   -3.16738000
 H                 -0.50700000    5.89329000   -2.15727000
 H                 -0.23963000    4.15756000   -1.98292000
 C                 -1.48693000    5.06039000    0.30432000
 H                 -0.93898000    6.00875000    0.36457000
 H                 -2.25220000    5.05986000    1.09017000
 H                 -0.78051000    4.25205000    0.51338000
 C                 -3.05834000    6.09673000   -1.34939000
 H                 -2.47302000    7.02286000   -1.34339000
 H                 -3.55722000    6.02504000   -2.32303000
 H                 -3.82893000    6.19428000   -0.57583000
 H                 -1.07505000    2.35231000   -1.14600000
 H                 -1.79608000    0.31201000   -3.39426000
 H                 -2.27629000   -1.35612000   -3.02799000
 H                  0.48987000   -0.15098000   -3.01384000
 C                  0.24581000   -2.28436000   -3.13794000
 H                  1.31726000   -2.39122000   -2.93011000
 C                  0.05629000   -2.28628000   -4.66239000
 H                  0.43066000   -3.22033000   -5.09611000
 H                 -1.00193000   -2.19908000   -4.94186000
 H                  0.59737000   -1.45722000   -5.13409000
 C                 -0.46656000   -3.46847000   -2.47219000
 H                 -0.08996000   -4.41324000   -2.88011000
 H                 -0.28531000   -3.47715000   -1.39273000
 H                 -1.55061000   -3.45048000   -2.64477000
