132
IntC_S.log
C     -1.10811    2.19787    0.76395
H     -0.12867    2.12897    1.25684
H     -1.86520    1.89943    1.48896
C     -1.36842    3.61580    0.29595
H     -0.50396    4.01228   -0.23688
H     -2.22811    3.65430   -0.37979
C     -1.66996    4.53962    1.48592
H     -2.53297    4.15457    2.03385
H     -0.81748    4.54316    2.17045
C     -1.96040    5.96598    1.02762
H     -1.09554    6.35582    0.48505
H     -2.80538    5.95397    0.33540
C     -2.27779    6.88375    2.20207
H     -1.43952    6.92232    2.89492
H     -2.48280    7.89395    1.85491
H     -3.15026    6.52280    2.74231
C     -2.85661    0.54889   -0.64845
H     -2.80594   -0.33318   -1.30635
C     -3.38383    0.07016    0.69824
H     -3.82822    0.86645    1.29221
H     -2.59536   -0.39913    1.29733
N     -4.47265   -0.88953    0.49872
H     -4.17373   -1.67772   -0.06220
S     -5.03448   -1.46395    1.97235
O     -5.42333   -0.33142    2.75639
O     -4.07552   -2.37358    2.55119
C     -6.47614   -2.36998    1.44080
C     -6.47256   -3.75003    1.46049
C     -7.56522   -1.65219    0.98775
C     -7.59504   -4.43211    1.01853
H     -5.59806   -4.26287    1.82936
C     -8.68435   -2.33741    0.54545
H     -7.51720   -0.57550    0.99658
C     -8.69596   -3.72432    0.56234
H     -7.61141   -5.51141    1.03083
H     -9.54597   -1.79366    0.18919
H     -9.57035   -4.25706    0.21909
C     -3.66744    1.59401   -1.30616
C     -4.32925    2.60609   -0.59768
C     -5.09307    3.55425   -1.25098
C     -5.21885    3.52981   -2.62986
C     -4.57807    2.53340   -3.34968
C     -3.81751    1.58312   -2.70083
H     -4.25976    2.65241    0.47792
H     -5.59355    4.32196   -0.67721
H     -5.81135    4.27698   -3.13745
H     -4.67321    2.49678   -4.42522
H     -3.32635    0.81827   -3.28404
Br    -0.56926    0.12257   -2.93089
Ni    -0.85633    0.98224   -0.77580
N      0.08402   -0.63179    0.27236
N      1.23988    1.54821   -0.94216
C     -0.26638   -1.78946    1.07606
C      1.08193   -2.29429    1.64082
N      2.03760   -1.32370    1.12350
C      1.36092   -0.45174    0.33139
C      1.96706    0.56991   -0.51563
N      3.25619    0.56842   -0.94137
C      3.45589    1.76037   -1.75717
C      2.02696    2.33082   -1.88641
H     -0.92651   -1.46863    1.89201
C     -1.05320   -2.80984    0.22944
H     -1.91418   -2.26232   -0.16508
C     -0.26064   -3.32388   -0.96840
H     -0.90257   -3.93570   -1.59739
H      0.09505   -2.49118   -1.57068
H      0.58307   -3.93659   -0.66015
C     -1.56636   -3.94882    1.10533
H     -2.25161   -3.56880    1.86030
H     -2.09799   -4.67402    0.49312
H     -0.74565   -4.46187    1.60269
H      1.10146   -2.30047    2.73369
H      1.32522   -3.29892    1.28485
C      3.29401   -1.12968    1.70656
C      4.10309   -2.22577    1.98572
C      5.33821   -2.01702    2.56208
C      5.76463   -0.74047    2.88763
C      4.95444    0.36408    2.65323
C      3.71863    0.14719    2.05467
H      3.77117   -3.22135    1.74166
H      5.97982   -2.86101    2.76690
H      6.73418   -0.62474    3.34160
C      5.34402    1.77643    3.06384
C      5.36801    2.68221    1.82652
H      6.14921    2.36072    1.14037
H      4.41490    2.65704    1.30694
H      5.57194    3.71038    2.11877
C      4.30444    2.30022    4.06576
H      4.24431    1.63764    4.92660
H      4.58617    3.29188    4.41305
H      3.31714    2.36664    3.61720
C      6.72151    1.83982    3.72847
H      6.94827    2.87110    3.99119
H      6.74359    1.24884    4.64091
H      7.49929    1.48681    3.05516
H      3.05060    0.97476    1.86598
C      4.15818   -0.50436   -1.00678
C      5.50535   -0.26405   -0.76288
C      6.39990   -1.30932   -0.85226
C      5.97222   -2.57342   -1.21829
C      4.63614   -2.82358   -1.51245
C      3.73355   -1.77364   -1.38020
H      5.83842    0.72608   -0.49718
H      7.44564   -1.13809   -0.64407
H      6.70492   -3.35967   -1.28720
C      4.15585   -4.19743   -1.95796
C      3.12321   -4.06702   -3.08582
H      3.52868   -3.47347   -3.90173
H      2.87122   -5.05250   -3.47106
H      2.20219   -3.60195   -2.74979
C      3.51904   -4.89600   -0.74963
H      3.11783   -5.86444   -1.04063
H      4.25890   -5.04824    0.03428
H      2.70971   -4.29159   -0.34881
C      5.30462   -5.07002   -2.47647
H      4.90167   -5.99522   -2.88274
H      5.84894   -4.55978   -3.26765
H      5.99779   -5.33555   -1.68206
H      2.68664   -1.91639   -1.59687
H      3.88757    1.49080   -2.72272
H      4.13347    2.45459   -1.24960
H      1.62371    2.12345   -2.88793
C      1.90314    3.84349   -1.65642
H      0.84099    4.07886   -1.78158
C      2.68350    4.60841   -2.72188
H      2.53404    5.67818   -2.59599
H      3.74936    4.40235   -2.64987
H      2.34578    4.32957   -3.71711
C      2.33066    4.26676   -0.25282
H      2.02367    5.29289   -0.06368
H      1.86583    3.62779    0.49498
H      3.41154    4.21824   -0.13791
